/*--------------------------------*- C++ -*----------------------------------*\
  =========                 |
  \\      /  F ield         | OpenFOAM: The Open Source CFD Toolbox
   \\    /   O peration     | Website:  https://openfoam.org
    \\  /    A nd           | Version:  6
     \\/     M anipulation  |
\*---------------------------------------------------------------------------*/
FoamFile
{
    version     2.0;
    format      ascii;
    class       featureEdgeMesh;
    location    "constant/triSurface";
    object      topo.eMesh;
}
// * * * * * * * * * * * * * * * * * * * * * * * * * * * * * * * * * * * * * //


// points:

2521
(
(203600 734600 429.4679)
(203900 734750 0)
(203900 734900 0)
(203900 735050 0)
(203900 735200 0)
(203900 735350 0)
(203900 735500 0)
(203900 735650 0)
(203900 735800 0)
(203900 735950 0)
(203900 736100 0)
(203900 736250 0)
(203900 736400 0)
(203900 736550 0)
(203900 736700 0)
(203900 736850 0)
(203900 737000 0)
(203900 737150 0)
(203900 737300 0)
(203900 737450 0)
(203900 737600 0)
(203900 737750 0)
(203900 737900 0)
(203900 738050 0)
(203900 738200 0)
(203900 738350 0)
(203900 738500 0)
(203900 738650 0)
(203900 738800 0)
(203900 738950 0)
(203900 739100 0)
(203900 739250 0)
(203900 739400 0)
(203900 739550 0)
(203900 739700 0)
(203900 739850 0)
(203900 740000 0)
(203900 740150 0)
(203900 740300 0)
(203900 740450 0)
(203900 740600 0)
(203900 740750 0)
(203900 740900 0)
(203900 741050 0)
(204050 734750 0)
(204050 734900 0)
(204050 735050 0)
(204050 735200 0)
(204050 735350 0)
(204050 735500 0)
(204050 735650 0)
(204050 735800 0)
(204050 735950 0)
(204050 736100 0)
(204050 736250 0)
(204050 736400 0)
(204050 736550 0)
(204050 736700 0)
(204050 736850 0)
(204050 737000 0)
(204050 737150 0)
(204050 737300 0)
(204050 737450 0)
(204050 737600 0)
(204050 737750 0)
(204050 737900 0)
(204050 738050 0)
(204050 738200 0)
(204050 738350 0)
(204050 738500 0)
(204050 738650 0)
(204050 738800 0)
(204050 738950 0)
(204050 739100 0)
(204050 739250 0)
(204050 739400 0)
(204050 739550 0)
(204050 739700 0)
(204050 739850 0)
(204050 740000 0)
(204050 740150 0)
(204050 740300 0)
(204050 740450 0)
(204050 740600 0)
(204050 740750 0)
(204050 740900 0)
(204050 741050 0)
(204200 734750 0)
(204200 734900 0)
(204200 735050 0)
(204200 735200 0)
(204200 735350 0)
(204200 735500 0)
(204200 735650 0)
(204200 735800 0)
(204200 735950 0)
(204200 736100 0)
(204200 736250 0)
(204200 736400 0)
(204200 736550 0)
(204200 736700 0)
(204200 736850 0)
(204200 737000 0)
(204200 737150 0)
(204200 737300 0)
(204200 737450 0)
(204200 737600 0)
(204200 737750 0)
(204200 737900 0)
(204200 738050 0)
(204200 738200 0)
(204200 738350 0)
(204200 738500 0)
(204200 738650 0)
(204200 738800 0)
(204200 738950 0)
(204200 739100 0)
(204200 739250 0)
(204200 739400 0)
(204200 739550 0)
(204200 739700 0)
(204200 739850 0)
(204200 740000 0)
(204200 740150 0)
(204200 740300 0)
(204200 740450 0)
(204200 740600 0)
(204200 740750 0)
(204200 740900 0)
(204200 741050 0)
(204350 734750 0)
(204350 734900 0)
(204350 735050 0)
(204350 735200 0)
(204350 735350 0)
(204350 735500 0)
(204350 735650 0)
(204350 735800 0)
(204350 735950 0)
(204350 736100 0)
(204350 736250 0)
(204350 736400 0)
(204350 736550 0)
(204350 736700 0)
(204350 736850 0)
(204350 737000 0)
(204350 737150 0)
(204350 737300 0)
(204350 737450 0)
(204350 737600 0)
(204350 737750 0)
(204350 737900 0)
(204350 738050 0)
(204350 738200 0)
(204350 738350 0)
(204350 738500 0)
(204350 738650 0)
(204350 738800 0)
(204350 738950 0)
(204350 739100 0)
(204350 739250 0)
(204350 739400 0)
(204350 739550 0)
(204350 739700 0)
(204350 739850 0)
(204350 740000 0)
(204350 740150 0)
(204350 740300 0)
(204350 740450 0)
(204350 740600 0)
(204350 740750 0)
(204350 740900 0)
(204350 741050 0)
(204500 734750 0)
(204500 734900 0)
(204500 735050 0)
(204500 735200 0)
(204500 735350 0)
(204500 735500 0)
(204500 735650 0)
(204500 735800 0)
(204500 735950 0)
(204500 736100 0)
(204500 736250 0)
(204500 736400 0)
(204500 736550 0)
(204500 736700 0)
(204500 736850 0)
(204500 737000 0)
(204500 737150 0)
(204500 737300 0)
(204500 737450 0)
(204500 737600 0)
(204500 737750 0)
(204500 737900 0)
(204500 738050 0)
(204500 738200 0)
(204500 738350 0)
(204500 738500 0)
(204500 738650 0)
(204500 738800 0)
(204500 738950 0)
(204500 739100 0)
(204500 739250 0)
(204500 739400 0)
(204500 739550 0)
(204500 739700 0)
(204500 739850 0)
(204500 740000 0)
(204500 740150 0)
(204500 740300 0)
(204500 740450 0)
(204500 740600 0)
(204500 740750 0)
(204500 740900 0)
(204500 741050 0)
(204650 734750 0)
(204650 734900 0)
(204650 735050 0)
(204650 735200 0)
(204650 735350 0)
(204650 735500 0)
(204650 735650 0)
(204650 735800 0)
(204650 735950 0)
(204650 736100 0)
(204650 736250 0)
(204650 736400 0)
(204650 736550 0)
(204650 736700 0)
(204650 736850 0)
(204650 737000 0)
(204650 737150 0)
(204650 737300 0)
(204650 737450 0)
(204650 737600 0)
(204650 737750 0)
(204650 737900 0)
(204650 738050 0)
(204650 738200 0)
(204650 738350 0)
(204650 738500 0)
(204650 738650 0)
(204650 738800 0)
(204650 738950 0)
(204650 739100 0)
(204650 739250 0)
(204650 739400 0)
(204650 739550 0)
(204650 739700 0)
(204650 739850 0)
(204650 740000 0)
(204650 740150 0)
(204650 740300 0)
(204650 740450 0)
(204650 740600 0)
(204650 740750 0)
(204650 740900 0)
(204650 741050 0)
(204800 734750 0)
(204800 734900 0)
(204800 735050 0)
(204800 735200 0)
(204800 735350 0)
(204800 735500 0)
(204800 735650 0)
(204800 735800 0)
(204800 735950 0)
(204800 736100 0)
(204800 736250 0)
(204800 736400 0)
(204800 736550 0)
(204800 736700 0)
(204800 736850 0)
(204800 737000 0)
(204800 737150 0)
(204800 737300 0)
(204800 737450 0)
(204800 737600 0)
(204800 737750 0)
(204800 737900 0)
(204800 738050 0)
(204800 738200 0)
(204800 738350 0)
(204800 738500 0)
(204800 738650 0)
(204800 738800 0)
(204800 738950 0)
(204800 739100 0)
(204800 739250 0)
(204800 739400 0)
(204800 739550 0)
(204800 739700 0)
(204800 739850 0)
(204800 740000 0)
(204800 740150 0)
(204800 740300 0)
(204800 740450 0)
(204800 740600 0)
(204800 740750 0)
(204800 740900 0)
(204800 741050 0)
(204950 734750 0)
(204950 734900 0)
(204950 735050 0)
(204950 735200 0)
(204950 735350 0)
(204950 735500 0)
(204950 735650 0)
(204950 735800 0)
(204950 735950 0)
(204950 736100 0)
(204950 736250 0)
(204950 736400 0)
(204950 736550 0)
(204950 736700 0)
(204950 736850 0)
(204950 737000 0)
(204950 737150 0)
(204950 737300 0)
(204950 737450 0)
(204950 737600 0)
(204950 737750 0)
(204950 737900 0)
(204950 738050 0)
(204950 738200 0)
(204950 738350 0)
(204950 738500 0)
(204950 738650 0)
(204950 738800 0)
(204950 738950 0)
(204950 739100 0)
(204950 739250 0)
(204950 739400 0)
(204950 739550 0)
(204950 739700 0)
(204950 739850 0)
(204950 740000 0)
(204950 740150 0)
(204950 740300 0)
(204950 740450 0)
(204950 740600 0)
(204950 740750 0)
(204950 740900 0)
(204950 741050 0)
(205100 734750 0)
(205100 734900 0)
(205100 735050 0)
(205100 735200 0)
(205100 735350 0)
(205100 735500 0)
(205100 735650 0)
(205100 735800 0)
(205100 735950 0)
(205100 736100 0)
(205100 736250 0)
(205100 736400 0)
(205100 736550 0)
(205100 736700 0)
(205100 736850 0)
(205100 737000 0)
(205100 737150 0)
(205100 737300 0)
(205100 737450 0)
(205100 737600 0)
(205100 737750 0)
(205100 737900 0)
(205100 738050 0)
(205100 738200 0)
(205100 738350 0)
(205100 738500 0)
(205100 738650 0)
(205100 738800 0)
(205100 738950 0)
(205100 739100 0)
(205100 739250 0)
(205100 739400 0)
(205100 739550 0)
(205100 739700 0)
(205100 739850 0)
(205100 740000 0)
(205100 740150 0)
(205100 740300 0)
(205100 740450 0)
(205100 740600 0)
(205100 740750 0)
(205100 740900 0)
(205100 741050 0)
(205250 734750 0)
(205250 734900 0)
(205250 735050 0)
(205250 735200 0)
(205250 735350 0)
(205250 735500 0)
(205250 735650 0)
(205250 735800 0)
(205250 735950 0)
(205250 736100 0)
(205250 736250 0)
(205250 736400 0)
(205250 736550 0)
(205250 736700 0)
(205250 736850 0)
(205250 737000 0)
(205250 737150 0)
(205250 737300 0)
(205250 737450 0)
(205250 737600 0)
(205250 737750 0)
(205250 737900 0)
(205250 738050 0)
(205250 738200 0)
(205250 738350 0)
(205250 738500 0)
(205250 738650 0)
(205250 738800 0)
(205250 738950 0)
(205250 739100 0)
(205250 739250 0)
(205250 739400 0)
(205250 739550 0)
(205250 739700 0)
(205250 739850 0)
(205250 740000 0)
(205250 740150 0)
(205250 740300 0)
(205250 740450 0)
(205250 740600 0)
(205250 740750 0)
(205250 740900 0)
(205250 741050 0)
(205400 734750 0)
(205400 734900 0)
(205400 735050 0)
(205400 735200 0)
(205400 735350 0)
(205400 735500 0)
(205400 735650 0)
(205400 735800 0)
(205400 735950 0)
(205400 736100 0)
(205400 736250 0)
(205400 736400 0)
(205400 736550 0)
(205400 736700 0)
(205400 736850 0)
(205400 737000 0)
(205400 737150 0)
(205400 737300 0)
(205400 737450 0)
(205400 737600 0)
(205400 737750 0)
(205400 737900 0)
(205400 738050 0)
(205400 738200 0)
(205400 738350 0)
(205400 738500 0)
(205400 738650 0)
(205400 738800 0)
(205400 738950 0)
(205400 739100 0)
(205400 739250 0)
(205400 739400 0)
(205400 739550 0)
(205400 739700 0)
(205400 739850 0)
(205400 740000 0)
(205400 740150 0)
(205400 740300 0)
(205400 740450 0)
(205400 740600 0)
(205400 740750 0)
(205400 740900 0)
(205400 741050 0)
(205550 734750 0)
(205550 734900 0)
(205550 735050 0)
(205550 735200 0)
(205550 735350 0)
(205550 735500 0)
(205550 735650 0)
(205550 735800 0)
(205550 735950 0)
(205550 736100 0)
(205550 736250 0)
(205550 736400 0)
(205550 736550 0)
(205550 736700 0)
(205550 736850 0)
(205550 737000 0)
(205550 737150 0)
(205550 737300 0)
(205550 737450 0)
(205550 737600 0)
(205550 737750 0)
(205550 737900 0)
(205550 738050 0)
(205550 738200 0)
(205550 738350 0)
(205550 738500 0)
(205550 738650 0)
(205550 738800 0)
(205550 738950 0)
(205550 739100 0)
(205550 739250 0)
(205550 739400 0)
(205550 739550 0)
(205550 739700 0)
(205550 739850 0)
(205550 740000 0)
(205550 740150 0)
(205550 740300 0)
(205550 740450 0)
(205550 740600 0)
(205550 740750 0)
(205550 740900 0)
(205550 741050 0)
(205700 734750 0)
(205700 734900 0)
(205700 735050 0)
(205700 735200 0)
(205700 735350 0)
(205700 735500 0)
(205700 735650 0)
(205700 735800 0)
(205700 735950 0)
(205700 736100 0)
(205700 736250 0)
(205700 736400 0)
(205700 736550 0)
(205700 736700 0)
(205700 736850 0)
(205700 737000 0)
(205700 737150 0)
(205700 737300 0)
(205700 737450 0)
(205700 737600 0)
(205700 737750 0)
(205700 737900 0)
(205700 738050 0)
(205700 738200 0)
(205700 738350 0)
(205700 738500 0)
(205700 738650 0)
(205700 738800 0)
(205700 738950 0)
(205700 739100 0)
(205700 739250 0)
(205700 739400 0)
(205700 739550 0)
(205700 739700 0)
(205700 739850 0)
(205700 740000 0)
(205700 740150 0)
(205700 740300 0)
(205700 740450 0)
(205700 740600 0)
(205700 740750 0)
(205700 740900 0)
(205700 741050 0)
(205850 734750 0)
(205850 734900 0)
(205850 735050 0)
(205850 735200 0)
(205850 735350 0)
(205850 735500 0)
(205850 735650 0)
(205850 735800 0)
(205850 735950 0)
(205850 736100 0)
(205850 736250 0)
(205850 736400 0)
(205850 736550 0)
(205850 736700 0)
(205850 736850 0)
(205850 737000 0)
(205850 737150 0)
(205850 737300 0)
(205850 737450 0)
(205850 737600 0)
(205850 737750 0)
(205850 737900 0)
(205850 738050 0)
(205850 738200 0)
(205850 738350 0)
(205850 738500 0)
(205850 738650 0)
(205850 738800 0)
(205850 738950 0)
(205850 739100 0)
(205850 739250 0)
(205850 739400 0)
(205850 739550 0)
(205850 739700 0)
(205850 739850 0)
(205850 740000 0)
(205850 740150 0)
(205850 740300 0)
(205850 740450 0)
(205850 740600 0)
(205850 740750 0)
(205850 740900 0)
(205850 741050 0)
(206000 734750 0)
(206000 734900 0)
(206000 735050 0)
(206000 735200 0)
(206000 735350 0)
(206000 735500 0)
(206000 735650 0)
(206000 735800 0)
(206000 735950 0)
(206000 736100 0)
(206000 736250 0)
(206000 736400 0)
(206000 736550 0)
(206000 736700 0)
(206000 736850 0)
(206000 737000 0)
(206000 737150 0)
(206000 737300 0)
(206000 737450 0)
(206000 737600 0)
(206000 737750 0)
(206000 737900 0)
(206000 738050 0)
(206000 738200 0)
(206000 738350 0)
(206000 738500 0)
(206000 738650 0)
(206000 738800 0)
(206000 738950 0)
(206000 739100 0)
(206000 739250 0)
(206000 739400 178.8594)
(206000 739400 0)
(206000 739550 0)
(206000 739700 0)
(206000 739850 0)
(206000 740000 0)
(206000 740150 0)
(206000 740300 0)
(206000 740450 0)
(206000 740600 0)
(206000 740750 0)
(206000 740900 0)
(206000 741050 0)
(206150 734750 0)
(206150 734900 0)
(206150 735050 0)
(206150 735200 0)
(206150 735350 0)
(206150 735500 0)
(206150 735650 0)
(206150 735800 0)
(206150 735950 0)
(206150 736100 0)
(206150 736250 0)
(206150 736400 0)
(206150 736550 0)
(206150 736700 0)
(206150 736850 0)
(206150 737000 0)
(206150 737150 0)
(206150 737300 0)
(206150 737450 0)
(206150 737600 0)
(206150 737750 0)
(206150 737900 0)
(206150 738050 0)
(206150 738200 0)
(206150 738350 0)
(206150 738500 0)
(206150 738650 0)
(206150 738800 0)
(206150 738950 0)
(206150 739100 0)
(206150 739250 0)
(206150 739400 0)
(206150 739550 0)
(206150 739700 0)
(206150 739850 0)
(206150 740000 0)
(206150 740150 0)
(206150 740300 0)
(206150 740450 0)
(206150 740600 0)
(206150 740750 0)
(206150 740900 0)
(206150 741050 0)
(206300 734750 0)
(206300 734900 0)
(206300 735050 0)
(206300 735200 0)
(206300 735350 0)
(206300 735500 0)
(206300 735650 0)
(206300 735800 0)
(206300 735950 0)
(206300 736100 0)
(206300 736250 0)
(206300 736400 0)
(206300 736550 0)
(206300 736700 0)
(206300 736850 0)
(206300 737000 0)
(206300 737150 0)
(206300 737300 0)
(206300 737450 0)
(206300 737600 0)
(206300 737750 0)
(206300 737900 0)
(206300 738050 0)
(206300 738200 0)
(206300 738350 0)
(206300 738500 0)
(206300 738650 0)
(206300 738800 0)
(206300 738950 0)
(206300 739100 0)
(206300 739250 0)
(206300 739400 0)
(206300 739550 0)
(206300 739700 0)
(206300 739850 0)
(206300 740000 0)
(206300 740150 0)
(206300 740300 0)
(206300 740450 0)
(206300 740600 0)
(206300 740750 0)
(206300 740900 0)
(206300 741050 0)
(206450 734750 0)
(206450 734900 0)
(206450 735050 0)
(206450 735200 0)
(206450 735350 0)
(206450 735500 0)
(206450 735650 0)
(206450 735800 0)
(206450 735950 0)
(206450 736100 0)
(206450 736250 0)
(206450 736400 0)
(206450 736550 0)
(206450 736700 0)
(206450 736850 0)
(206450 737000 0)
(206450 737150 0)
(206450 737300 0)
(206450 737450 0)
(206450 737600 0)
(206450 737750 0)
(206450 737900 0)
(206450 738050 0)
(206450 738200 0)
(206450 738350 0)
(206450 738500 0)
(206450 738650 0)
(206450 738800 0)
(206450 738950 0)
(206450 739100 0)
(206450 739250 0)
(206450 739400 0)
(206450 739550 0)
(206450 739700 0)
(206450 739850 0)
(206450 740000 0)
(206450 740150 0)
(206450 740300 0)
(206450 740450 0)
(206450 740600 0)
(206450 740750 0)
(206450 740900 0)
(206450 741050 0)
(206600 734750 0)
(206600 734900 0)
(206600 735050 0)
(206600 735200 0)
(206600 735350 0)
(206600 735500 0)
(206600 735650 0)
(206600 735800 0)
(206600 735950 0)
(206600 736100 0)
(206600 736250 0)
(206600 736400 0)
(206600 736550 0)
(206600 736700 0)
(206600 736850 0)
(206600 737000 0)
(206600 737150 0)
(206600 737300 0)
(206600 737450 0)
(206600 737600 0)
(206600 737750 0)
(206600 737900 0)
(206600 738050 0)
(206600 738200 0)
(206600 738350 0)
(206600 738500 0)
(206600 738650 0)
(206600 738800 0)
(206600 738950 0)
(206600 739100 0)
(206600 739250 0)
(206600 739400 0)
(206600 739550 0)
(206600 739700 0)
(206600 739850 0)
(206600 740000 0)
(206600 740150 0)
(206600 740300 0)
(206600 740450 0)
(206600 740600 0)
(206600 740750 0)
(206600 740900 0)
(206600 741050 0)
(206750 734750 0)
(206750 734900 0)
(206750 735050 0)
(206750 735200 0)
(206750 735350 0)
(206750 735500 0)
(206750 735650 0)
(206750 735800 0)
(206750 735950 0)
(206750 736100 0)
(206750 736250 0)
(206750 736400 0)
(206750 736550 0)
(206750 736700 0)
(206750 736850 0)
(206750 737000 0)
(206750 737150 0)
(206750 737300 0)
(206750 737450 0)
(206750 737600 0)
(206750 737750 0)
(206750 737900 288.3923)
(206750 737900 0)
(206750 738050 295.3734)
(206750 738050 0)
(206750 738200 0)
(206750 738350 0)
(206750 738500 0)
(206750 738650 0)
(206750 738800 0)
(206750 738950 0)
(206750 739100 0)
(206750 739250 0)
(206750 739400 0)
(206750 739550 0)
(206750 739700 0)
(206750 739850 0)
(206750 740000 0)
(206750 740150 0)
(206750 740300 0)
(206750 740450 0)
(206750 740600 0)
(206750 740750 0)
(206750 740900 0)
(206750 741050 0)
(206900 734750 0)
(206900 734900 0)
(206900 735050 0)
(206900 735200 0)
(206900 735350 0)
(206900 735500 0)
(206900 735650 0)
(206900 735800 0)
(206900 735950 0)
(206900 736100 0)
(206900 736250 0)
(206900 736400 0)
(206900 736550 0)
(206900 736700 0)
(206900 736850 0)
(206900 737000 0)
(206900 737150 0)
(206900 737300 0)
(206900 737450 0)
(206900 737600 0)
(206900 737750 0)
(206900 737900 0)
(206900 738050 0)
(206900 738200 204.3049)
(206900 738200 0)
(206900 738350 0)
(206900 738500 0)
(206900 738650 0)
(206900 738800 0)
(206900 738950 0)
(206900 739100 0)
(206900 739250 0)
(206900 739400 0)
(206900 739550 0)
(206900 739700 0)
(206900 739850 0)
(206900 740000 0)
(206900 740150 0)
(206900 740300 0)
(206900 740450 0)
(206900 740600 0)
(206900 740750 0)
(206900 740900 0)
(206900 741050 0)
(207050 734750 0)
(207050 734900 0)
(207050 735050 0)
(207050 735200 0)
(207050 735350 0)
(207050 735500 0)
(207050 735650 0)
(207050 735800 0)
(207050 735950 0)
(207050 736100 0)
(207050 736250 0)
(207050 736400 0)
(207050 736550 0)
(207050 736700 0)
(207050 736850 0)
(207050 737000 0)
(207050 737150 0)
(207050 737300 0)
(207050 737450 0)
(207050 737600 0)
(207050 737750 0)
(207050 737900 0)
(207050 738050 0)
(207050 738200 0)
(207050 738350 0)
(207050 738500 0)
(207050 738650 0)
(207050 738800 0)
(207050 738950 0)
(207050 739100 0)
(207050 739250 0)
(207050 739400 0)
(207050 739550 0)
(207050 739700 0)
(207050 739850 0)
(207050 740000 0)
(207050 740150 0)
(207050 740300 0)
(207050 740450 0)
(207050 740600 0)
(207050 740750 0)
(207050 740900 0)
(207050 741050 0)
(207200 734750 0)
(207200 734900 0)
(207200 735050 0)
(207200 735200 0)
(207200 735350 0)
(207200 735500 0)
(207200 735650 0)
(207200 735800 0)
(207200 735950 0)
(207200 736100 0)
(207200 736250 0)
(207200 736400 0)
(207200 736550 0)
(207200 736700 0)
(207200 736850 0)
(207200 737000 0)
(207200 737150 0)
(207200 737300 0)
(207200 737450 0)
(207200 737600 0)
(207200 737750 0)
(207200 737900 0)
(207200 738050 0)
(207200 738200 0)
(207200 738350 0)
(207200 738500 0)
(207200 738650 0)
(207200 738800 0)
(207200 738950 0)
(207200 739100 0)
(207200 739250 0)
(207200 739400 0)
(207200 739550 0)
(207200 739700 0)
(207200 739850 0)
(207200 740000 0)
(207200 740150 0)
(207200 740300 0)
(207200 740450 0)
(207200 740600 0)
(207200 740750 0)
(207200 740900 0)
(207200 741050 0)
(207350 734750 0)
(207350 734900 0)
(207350 735050 0)
(207350 735200 0)
(207350 735350 0)
(207350 735500 0)
(207350 735650 0)
(207350 735800 0)
(207350 735950 0)
(207350 736100 0)
(207350 736250 0)
(207350 736400 0)
(207350 736550 0)
(207350 736700 0)
(207350 736850 0)
(207350 737000 0)
(207350 737150 0)
(207350 737300 0)
(207350 737450 0)
(207350 737600 0)
(207350 737750 0)
(207350 737900 0)
(207350 738050 0)
(207350 738200 0)
(207350 738350 0)
(207350 738500 0)
(207350 738650 0)
(207350 738800 0)
(207350 738950 0)
(207350 739100 0)
(207350 739250 0)
(207350 739400 0)
(207350 739550 0)
(207350 739700 0)
(207350 739850 0)
(207350 740000 0)
(207350 740150 0)
(207350 740300 0)
(207350 740450 0)
(207350 740600 0)
(207350 740750 0)
(207350 740900 0)
(207350 741050 0)
(207500 734750 0)
(207500 734900 0)
(207500 735050 0)
(207500 735200 0)
(207500 735350 0)
(207500 735500 0)
(207500 735650 0)
(207500 735800 0)
(207500 735950 0)
(207500 736100 0)
(207500 736250 0)
(207500 736400 0)
(207500 736550 0)
(207500 736700 0)
(207500 736850 0)
(207500 737000 0)
(207500 737150 0)
(207500 737300 0)
(207500 737450 0)
(207500 737600 0)
(207500 737750 0)
(207500 737900 0)
(207500 738050 0)
(207500 738200 0)
(207500 738350 0)
(207500 738500 0)
(207500 738650 0)
(207500 738800 0)
(207500 738950 0)
(207500 739100 0)
(207500 739250 0)
(207500 739400 0)
(207500 739550 0)
(207500 739700 0)
(207500 739850 0)
(207500 740000 0)
(207500 740150 0)
(207500 740300 0)
(207500 740450 0)
(207500 740600 0)
(207500 740750 0)
(207500 740900 0)
(207500 741050 0)
(207650 734750 0)
(207650 734900 0)
(207650 735050 0)
(207650 735200 0)
(207650 735350 0)
(207650 735500 0)
(207650 735650 0)
(207650 735800 0)
(207650 735950 0)
(207650 736100 0)
(207650 736250 0)
(207650 736400 0)
(207650 736550 0)
(207650 736700 0)
(207650 736850 0)
(207650 737000 0)
(207650 737150 0)
(207650 737300 0)
(207650 737450 0)
(207650 737600 0)
(207650 737750 0)
(207650 737900 0)
(207650 738050 0)
(207650 738200 0)
(207650 738350 0)
(207650 738500 0)
(207650 738650 0)
(207650 738800 0)
(207650 738950 0)
(207650 739100 0)
(207650 739250 0)
(207650 739400 0)
(207650 739550 0)
(207650 739700 0)
(207650 739850 0)
(207650 740000 0)
(207650 740150 0)
(207650 740300 0)
(207650 740450 0)
(207650 740600 0)
(207650 740750 0)
(207650 740900 0)
(207650 741050 0)
(207800 734750 0)
(207800 734900 0)
(207800 735050 0)
(207800 735200 0)
(207800 735350 0)
(207800 735500 0)
(207800 735650 0)
(207800 735800 0)
(207800 735950 0)
(207800 736100 0)
(207800 736250 0)
(207800 736400 0)
(207800 736550 0)
(207800 736700 0)
(207800 736850 0)
(207800 737000 0)
(207800 737150 0)
(207800 737300 0)
(207800 737450 0)
(207800 737600 0)
(207800 737750 0)
(207800 737900 0)
(207800 738050 0)
(207800 738200 0)
(207800 738350 0)
(207800 738500 0)
(207800 738650 0)
(207800 738800 0)
(207800 738950 0)
(207800 739100 0)
(207800 739250 0)
(207800 739400 0)
(207800 739550 0)
(207800 739700 0)
(207800 739850 0)
(207800 740000 0)
(207800 740150 0)
(207800 740300 0)
(207800 740450 0)
(207800 740600 0)
(207800 740750 0)
(207800 740900 0)
(207800 741050 0)
(207950 734750 0)
(207950 734900 0)
(207950 735050 0)
(207950 735200 0)
(207950 735350 0)
(207950 735500 0)
(207950 735650 0)
(207950 735800 0)
(207950 735950 0)
(207950 736100 0)
(207950 736250 0)
(207950 736400 0)
(207950 736550 0)
(207950 736700 0)
(207950 736850 0)
(207950 737000 0)
(207950 737150 0)
(207950 737300 0)
(207950 737450 0)
(207950 737600 0)
(207950 737750 0)
(207950 737900 0)
(207950 738050 0)
(207950 738200 0)
(207950 738350 0)
(207950 738500 0)
(207950 738650 0)
(207950 738800 0)
(207950 738950 0)
(207950 739100 0)
(207950 739250 0)
(207950 739400 0)
(207950 739550 0)
(207950 739700 0)
(207950 739850 0)
(207950 740000 0)
(207950 740150 0)
(207950 740300 0)
(207950 740450 0)
(207950 740600 0)
(207950 740750 0)
(207950 740900 0)
(207950 741050 0)
(208100 734750 0)
(208100 734900 0)
(208100 735050 0)
(208100 735200 0)
(208100 735350 0)
(208100 735500 0)
(208100 735650 0)
(208100 735800 0)
(208100 735950 0)
(208100 736100 0)
(208100 736250 0)
(208100 736400 0)
(208100 736550 0)
(208100 736700 0)
(208100 736850 0)
(208100 737000 0)
(208100 737150 0)
(208100 737300 0)
(208100 737450 0)
(208100 737600 0)
(208100 737750 0)
(208100 737900 0)
(208100 738050 0)
(208100 738200 0)
(208100 738350 0)
(208100 738500 0)
(208100 738650 0)
(208100 738800 0)
(208100 738950 0)
(208100 739100 0)
(208100 739250 0)
(208100 739400 0)
(208100 739550 0)
(208100 739700 0)
(208100 739850 0)
(208100 740000 0)
(208100 740150 0)
(208100 740300 0)
(208100 740450 0)
(208100 740600 0)
(208100 740750 0)
(208100 740900 0)
(208100 741050 0)
(208250 734750 0)
(208250 734900 0)
(208250 735050 0)
(208250 735200 0)
(208250 735350 0)
(208250 735500 0)
(208250 735650 0)
(208250 735800 0)
(208250 735950 0)
(208250 736100 0)
(208250 736250 0)
(208250 736400 0)
(208250 736550 0)
(208250 736700 0)
(208250 736850 0)
(208250 737000 0)
(208250 737150 0)
(208250 737300 0)
(208250 737450 0)
(208250 737600 0)
(208250 737750 0)
(208250 737900 0)
(208250 738050 0)
(208250 738200 0)
(208250 738350 0)
(208250 738500 0)
(208250 738650 0)
(208250 738800 0)
(208250 738950 0)
(208250 739100 0)
(208250 739250 0)
(208250 739400 0)
(208250 739550 0)
(208250 739700 0)
(208250 739850 0)
(208250 740000 0)
(208250 740150 0)
(208250 740300 0)
(208250 740450 0)
(208250 740600 0)
(208250 740750 0)
(208250 740900 0)
(208250 741050 0)
(208400 734750 0)
(208400 734900 0)
(208400 735050 0)
(208400 735200 0)
(208400 735350 0)
(208400 735500 0)
(208400 735650 0)
(208400 735800 0)
(208400 735950 0)
(208400 736100 0)
(208400 736250 0)
(208400 736400 0)
(208400 736550 0)
(208400 736700 0)
(208400 736850 0)
(208400 737000 0)
(208400 737150 0)
(208400 737300 0)
(208400 737450 0)
(208400 737600 0)
(208400 737750 0)
(208400 737900 0)
(208400 738050 0)
(208400 738200 0)
(208400 738350 0)
(208400 738500 0)
(208400 738650 0)
(208400 738800 0)
(208400 738950 0)
(208400 739100 0)
(208400 739250 0)
(208400 739400 0)
(208400 739550 0)
(208400 739700 0)
(208400 739850 0)
(208400 740000 0)
(208400 740150 0)
(208400 740300 0)
(208400 740450 0)
(208400 740600 0)
(208400 740750 0)
(208400 740900 0)
(208400 741050 0)
(208550 734750 0)
(208550 734900 0)
(208550 735050 0)
(208550 735200 0)
(208550 735350 0)
(208550 735500 0)
(208550 735650 0)
(208550 735800 0)
(208550 735950 256.4057)
(208550 735950 0)
(208550 736100 0)
(208550 736250 0)
(208550 736400 0)
(208550 736550 0)
(208550 736700 0)
(208550 736850 0)
(208550 737000 0)
(208550 737150 0)
(208550 737300 0)
(208550 737450 0)
(208550 737600 0)
(208550 737750 0)
(208550 737900 0)
(208550 738050 0)
(208550 738200 0)
(208550 738350 0)
(208550 738500 0)
(208550 738650 0)
(208550 738800 0)
(208550 738950 0)
(208550 739100 0)
(208550 739250 0)
(208550 739400 0)
(208550 739550 0)
(208550 739700 0)
(208550 739850 0)
(208550 740000 0)
(208550 740150 0)
(208550 740300 0)
(208550 740450 0)
(208550 740600 0)
(208550 740750 0)
(208550 740900 0)
(208550 741050 0)
(208700 734750 0)
(208700 734900 0)
(208700 735050 0)
(208700 735200 0)
(208700 735350 0)
(208700 735500 0)
(208700 735650 0)
(208700 735800 0)
(208700 735950 0)
(208700 736100 0)
(208700 736250 0)
(208700 736400 0)
(208700 736550 0)
(208700 736700 0)
(208700 736850 0)
(208700 737000 0)
(208700 737150 0)
(208700 737300 0)
(208700 737450 0)
(208700 737600 0)
(208700 737750 0)
(208700 737900 0)
(208700 738050 0)
(208700 738200 0)
(208700 738350 0)
(208700 738500 0)
(208700 738650 0)
(208700 738800 0)
(208700 738950 0)
(208700 739100 0)
(208700 739250 0)
(208700 739400 0)
(208700 739550 0)
(208700 739700 0)
(208700 739850 0)
(208700 740000 0)
(208700 740150 0)
(208700 740300 0)
(208700 740450 0)
(208700 740600 0)
(208700 740750 0)
(208700 740900 0)
(208700 741050 0)
(208850 734750 0)
(208850 734900 0)
(208850 735050 0)
(208850 735200 0)
(208850 735350 0)
(208850 735500 0)
(208850 735650 0)
(208850 735800 0)
(208850 735950 0)
(208850 736100 0)
(208850 736250 0)
(208850 736400 0)
(208850 736550 0)
(208850 736700 0)
(208850 736850 0)
(208850 737000 0)
(208850 737150 0)
(208850 737300 0)
(208850 737450 0)
(208850 737600 0)
(208850 737750 0)
(208850 737900 0)
(208850 738050 0)
(208850 738200 0)
(208850 738350 0)
(208850 738500 0)
(208850 738650 0)
(208850 738800 0)
(208850 738950 0)
(208850 739100 0)
(208850 739250 0)
(208850 739400 0)
(208850 739550 0)
(208850 739700 0)
(208850 739850 0)
(208850 740000 0)
(208850 740150 0)
(208850 740300 0)
(208850 740450 0)
(208850 740600 0)
(208850 740750 0)
(208850 740900 0)
(208850 741050 0)
(209000 734750 0)
(209000 734900 0)
(209000 735050 0)
(209000 735200 0)
(209000 735350 0)
(209000 735500 0)
(209000 735650 0)
(209000 735800 0)
(209000 735950 0)
(209000 736100 0)
(209000 736250 0)
(209000 736400 0)
(209000 736550 0)
(209000 736700 0)
(209000 736850 0)
(209000 737000 0)
(209000 737150 0)
(209000 737300 0)
(209000 737450 0)
(209000 737600 0)
(209000 737750 0)
(209000 737900 0)
(209000 738050 0)
(209000 738200 0)
(209000 738350 0)
(209000 738500 0)
(209000 738650 0)
(209000 738800 0)
(209000 738950 0)
(209000 739100 0)
(209000 739250 0)
(209000 739400 0)
(209000 739550 0)
(209000 739700 0)
(209000 739850 0)
(209000 740000 0)
(209000 740150 0)
(209000 740300 0)
(209000 740450 0)
(209000 740600 0)
(209000 740750 0)
(209000 740900 0)
(209000 741050 0)
(209150 734750 0)
(209150 734900 0)
(209150 735050 0)
(209150 735200 0)
(209150 735350 0)
(209150 735500 0)
(209150 735650 0)
(209150 735800 0)
(209150 735950 0)
(209150 736100 0)
(209150 736250 0)
(209150 736400 0)
(209150 736550 0)
(209150 736700 0)
(209150 736850 0)
(209150 737000 0)
(209150 737150 0)
(209150 737300 0)
(209150 737450 0)
(209150 737600 0)
(209150 737750 0)
(209150 737900 0)
(209150 738050 0)
(209150 738200 0)
(209150 738350 0)
(209150 738500 0)
(209150 738650 0)
(209150 738800 0)
(209150 738950 0)
(209150 739100 0)
(209150 739250 0)
(209150 739400 0)
(209150 739550 0)
(209150 739700 0)
(209150 739850 0)
(209150 740000 0)
(209150 740150 0)
(209150 740300 0)
(209150 740450 0)
(209150 740600 0)
(209150 740750 0)
(209150 740900 0)
(209150 741050 0)
(209300 734750 0)
(209300 734900 0)
(209300 735050 0)
(209300 735200 0)
(209300 735350 0)
(209300 735500 0)
(209300 735650 0)
(209300 735800 0)
(209300 735950 0)
(209300 736100 0)
(209300 736250 0)
(209300 736400 0)
(209300 736550 0)
(209300 736700 0)
(209300 736850 0)
(209300 737000 0)
(209300 737150 0)
(209300 737300 0)
(209300 737450 0)
(209300 737600 0)
(209300 737750 0)
(209300 737900 0)
(209300 738050 0)
(209300 738200 0)
(209300 738350 0)
(209300 738500 0)
(209300 738650 0)
(209300 738800 0)
(209300 738950 0)
(209300 739100 0)
(209300 739250 0)
(209300 739400 0)
(209300 739550 0)
(209300 739700 0)
(209300 739850 0)
(209300 740000 0)
(209300 740150 0)
(209300 740300 0)
(209300 740450 0)
(209300 740600 0)
(209300 740750 0)
(209300 740900 0)
(209300 741050 0)
(209450 734750 0)
(209450 734900 0)
(209450 735050 0)
(209450 735200 0)
(209450 735350 0)
(209450 735500 0)
(209450 735650 0)
(209450 735800 0)
(209450 735950 0)
(209450 736100 0)
(209450 736250 0)
(209450 736400 0)
(209450 736550 0)
(209450 736700 0)
(209450 736850 0)
(209450 737000 0)
(209450 737150 0)
(209450 737300 0)
(209450 737450 0)
(209450 737600 0)
(209450 737750 0)
(209450 737900 0)
(209450 738050 0)
(209450 738200 0)
(209450 738350 0)
(209450 738500 0)
(209450 738650 0)
(209450 738800 0)
(209450 738950 0)
(209450 739100 0)
(209450 739250 0)